LAMMPS (5 Oct 2016)
# pouring spheres into container box

units		lj
atom_style      sphere
boundary        f f f
dimension	3
comm_modify     vel yes

region          box block -10 10 -10 10 -10 10 units box
create_box      2 box
Created orthogonal box = (-10 -10 -10) to (10 10 10)

pair_style	hybrid gran/hooke 4000.0 NULL 100.0 NULL 0.5 1
pair_coeff	* * gran/hooke

region          container block -6 6 -6 6 -6 6 units box
fix		container all wall/gran/region hooke/history 		4000.0 NULL 100.0 NULL 0.5 1 region container

neighbor	0.3 bin
neigh_modify	delay 0 every 1 check yes

fix             2 all nve/sphere
fix		3 all gravity 1.0 vector 0 0 -1

region          slab block -2 2 -2 2 -2 2 units box
fix             ins all pour 100 2 4767548 vol 0.4 10 	        diam one 1.0 region slab ignore
Particle insertion: 48 every 566 steps, 100 by step 1133

timestep	0.005

compute         1 all temp
compute_modify  1 dynamic yes

compute         2 all temp/sphere
compute_modify  2 dynamic yes

thermo		100
thermo_style	custom step atoms temp c_1 c_2 press
thermo_modify   lost ignore
compute_modify  thermo_temp dynamic yes

#dump		2 all image 100 image.*.jpg type type #		zoom 1.4 adiam 1.0 box no 0.0 axes yes 0.9 0.03
#dump_modify	2 pad 5

run	        5000
  1 neighbor list requests
  update every 1 steps, delay 0 steps, check yes
Step Atoms Temp c_1 c_2 Press
0        0            0            0            0            0
Averages over the last 26 of 51 rows, steps 2500 to 5000:
Atoms Temp c_1 c_2 Press
100 0.00744129 0.00744129 0.00580984 0.000277563
Loop time of 0.081454 on 1 procs for 5000 steps with 100 atoms

region          container delete
variable        theta equal (step-5000)*(4.0*PI/5000)
region          container block -6 6 -6 6 -6 6 units box                 rotate v_theta 0 0 0 0 0 1
run	        5000
Step Atoms Temp c_1 c_2 Press
5000      100 0.00027730599 0.00027730599 0.00041664922 4.705763e-05
Averages over the last 26 of 51 rows, steps 7500 to 10000:
Atoms Temp c_1 c_2 Press
100 1.37604 1.37604 0.68801 0.0219873
Loop time of 0.261407 on 1 procs for 5000 steps with 100 atoms

region          container delete
region          container block -6 6 -6 6 -6 6 units box
run             5000
Step Atoms Temp c_1 c_2 Press
10000      100    1.3935828    1.3935828   0.69598655   0.02230659
Averages over the last 26 of 51 rows, steps 12500 to 15000:
Atoms Temp c_1 c_2 Press
100 0.00119754 0.00119754 0.00111798 4.71662e-05
Loop time of 0.0895741 on 1 procs for 5000 steps with 100 atoms

region          container delete
variable        theta equal (step-15000)*(4.0*PI/5000)
region          container block -6 6 -6 6 -6 6 units box                 rotate v_theta 0 0 0 1 1 1
run	        5000
Step Atoms Temp c_1 c_2 Press
15000      100 0.00051902191 0.00051902191 0.00050725364 6.4228962e-06
Averages over the last 26 of 51 rows, steps 17500 to 20000:
Atoms Temp c_1 c_2 Press
100 3.43989 3.43989 1.86728 0.0475926
Loop time of 0.206397 on 1 procs for 5000 steps with 100 atoms

region          container delete
region          container block -6 6 -6 6 -6 6 units box
run             5000
Step Atoms Temp c_1 c_2 Press
20000      100    3.7243709    3.7243709    2.0380212  0.048156434
Averages over the last 26 of 51 rows, steps 22500 to 25000:
Atoms Temp c_1 c_2 Press
100 0.00362041 0.00362041 0.00312872 0.000224531
Loop time of 0.0954661 on 1 procs for 5000 steps with 100 atoms
